
---------- Begin Simulation Statistics ----------
simSeconds                                   0.107238                       # Number of seconds simulated (Second)
simTicks                                 107237725000                       # Number of ticks simulated (Tick)
finalTick                                107237725000                       # Number of ticks from beginning of simulation (restored from checkpoints and never reset) (Tick)
simFreq                                  1000000000000                       # The number of ticks per simulated second ((Tick/Second))
hostSeconds                                    165.15                       # Real time elapsed on the host (Second)
hostTickRate                                649348898                       # The number of ticks simulated per host second (ticks/s) ((Tick/Second))
hostMemory                                     674488                       # Number of bytes of host memory used (Byte)
simInsts                                     97337533                       # Number of instructions simulated (Count)
simOps                                       97337579                       # Number of ops (including micro ops) simulated (Count)
hostInstRate                                   589401                       # Simulator instruction rate (inst/s) ((Count/Second))
hostOpRate                                     589401                       # Simulator op (including micro ops) rate (op/s) ((Count/Second))
system.clk_domain.clock                          1000                       # Clock period in ticks (Tick)
system.clk_domain.voltage_domain.voltage            1                       # Voltage in Volts (Volt)
system.cpu.numCycles                        107237727                       # Number of cpu cycles simulated (Cycle)
system.cpu.cpi                               1.101710                       # CPI: cycles per instruction (core level) ((Cycle/Count))
system.cpu.ipc                               0.907680                       # IPC: instructions per cycle (core level) ((Count/Cycle))
system.cpu.numWorkItemsStarted                      0                       # Number of work items this cpu started (Count)
system.cpu.numWorkItemsCompleted                    0                       # Number of work items this cpu completed (Count)
system.cpu.instsAdded                        99068953                       # Number of instructions added to the IQ (excludes non-spec) (Count)
system.cpu.nonSpecInstsAdded                   139018                       # Number of non-speculative instructions added to the IQ (Count)
system.cpu.instsIssued                       97846115                       # Number of instructions issued (Count)
system.cpu.squashedInstsIssued                    138                       # Number of squashed instructions issued (Count)
system.cpu.squashedInstsExamined              1870391                       # Number of squashed instructions iterated over during squash; mainly for profiling (Count)
system.cpu.squashedOperandsExamined           1912407                       # Number of squashed operands that are examined and possibly removed from graph (Count)
system.cpu.squashedNonSpecRemoved                 614                       # Number of squashed non-spec instructions that were removed (Count)
system.cpu.numIssuedDist::samples           107202355                       # Number of insts issued each cycle (Count)
system.cpu.numIssuedDist::mean               0.912724                       # Number of insts issued each cycle (Count)
system.cpu.numIssuedDist::stdev              1.012052                       # Number of insts issued each cycle (Count)
system.cpu.numIssuedDist::underflows                0      0.00%      0.00% # Number of insts issued each cycle (Count)
system.cpu.numIssuedDist::0                  51672699     48.20%     48.20% # Number of insts issued each cycle (Count)
system.cpu.numIssuedDist::1                  18321787     17.09%     65.29% # Number of insts issued each cycle (Count)
system.cpu.numIssuedDist::2                  33969049     31.69%     96.98% # Number of insts issued each cycle (Count)
system.cpu.numIssuedDist::3                   2139778      2.00%     98.97% # Number of insts issued each cycle (Count)
system.cpu.numIssuedDist::4                    698926      0.65%     99.63% # Number of insts issued each cycle (Count)
system.cpu.numIssuedDist::5                    176073      0.16%     99.79% # Number of insts issued each cycle (Count)
system.cpu.numIssuedDist::6                    125915      0.12%     99.91% # Number of insts issued each cycle (Count)
system.cpu.numIssuedDist::7                     49687      0.05%     99.95% # Number of insts issued each cycle (Count)
system.cpu.numIssuedDist::8                     48441      0.05%    100.00% # Number of insts issued each cycle (Count)
system.cpu.numIssuedDist::overflows                 0      0.00%    100.00% # Number of insts issued each cycle (Count)
system.cpu.numIssuedDist::min_value                 0                       # Number of insts issued each cycle (Count)
system.cpu.numIssuedDist::max_value                 8                       # Number of insts issued each cycle (Count)
system.cpu.numIssuedDist::total             107202355                       # Number of insts issued each cycle (Count)
system.cpu.statFuBusy::No_OpClass                   0      0.00%      0.00% # attempts to use FU when none available (Count)
system.cpu.statFuBusy::IntAlu                    5455      5.91%      5.91% # attempts to use FU when none available (Count)
system.cpu.statFuBusy::IntMult                      0      0.00%      5.91% # attempts to use FU when none available (Count)
system.cpu.statFuBusy::IntDiv                       0      0.00%      5.91% # attempts to use FU when none available (Count)
system.cpu.statFuBusy::FloatAdd                     0      0.00%      5.91% # attempts to use FU when none available (Count)
system.cpu.statFuBusy::FloatCmp                     0      0.00%      5.91% # attempts to use FU when none available (Count)
system.cpu.statFuBusy::FloatCvt                     0      0.00%      5.91% # attempts to use FU when none available (Count)
system.cpu.statFuBusy::FloatMult                    0      0.00%      5.91% # attempts to use FU when none available (Count)
system.cpu.statFuBusy::FloatMultAcc                 0      0.00%      5.91% # attempts to use FU when none available (Count)
system.cpu.statFuBusy::FloatDiv                     0      0.00%      5.91% # attempts to use FU when none available (Count)
system.cpu.statFuBusy::FloatMisc                    0      0.00%      5.91% # attempts to use FU when none available (Count)
system.cpu.statFuBusy::FloatSqrt                    0      0.00%      5.91% # attempts to use FU when none available (Count)
system.cpu.statFuBusy::SimdAdd                      0      0.00%      5.91% # attempts to use FU when none available (Count)
system.cpu.statFuBusy::SimdAddAcc                   0      0.00%      5.91% # attempts to use FU when none available (Count)
system.cpu.statFuBusy::SimdAlu                      0      0.00%      5.91% # attempts to use FU when none available (Count)
system.cpu.statFuBusy::SimdCmp                      0      0.00%      5.91% # attempts to use FU when none available (Count)
system.cpu.statFuBusy::SimdCvt                      0      0.00%      5.91% # attempts to use FU when none available (Count)
system.cpu.statFuBusy::SimdMisc                     0      0.00%      5.91% # attempts to use FU when none available (Count)
system.cpu.statFuBusy::SimdMult                     0      0.00%      5.91% # attempts to use FU when none available (Count)
system.cpu.statFuBusy::SimdMultAcc                  0      0.00%      5.91% # attempts to use FU when none available (Count)
system.cpu.statFuBusy::SimdMatMultAcc               0      0.00%      5.91% # attempts to use FU when none available (Count)
system.cpu.statFuBusy::SimdShift                    0      0.00%      5.91% # attempts to use FU when none available (Count)
system.cpu.statFuBusy::SimdShiftAcc                 0      0.00%      5.91% # attempts to use FU when none available (Count)
system.cpu.statFuBusy::SimdDiv                      0      0.00%      5.91% # attempts to use FU when none available (Count)
system.cpu.statFuBusy::SimdSqrt                     0      0.00%      5.91% # attempts to use FU when none available (Count)
system.cpu.statFuBusy::SimdFloatAdd                 0      0.00%      5.91% # attempts to use FU when none available (Count)
system.cpu.statFuBusy::SimdFloatAlu                 0      0.00%      5.91% # attempts to use FU when none available (Count)
system.cpu.statFuBusy::SimdFloatCmp                 0      0.00%      5.91% # attempts to use FU when none available (Count)
system.cpu.statFuBusy::SimdFloatCvt                 0      0.00%      5.91% # attempts to use FU when none available (Count)
system.cpu.statFuBusy::SimdFloatDiv                 0      0.00%      5.91% # attempts to use FU when none available (Count)
system.cpu.statFuBusy::SimdFloatMisc                0      0.00%      5.91% # attempts to use FU when none available (Count)
system.cpu.statFuBusy::SimdFloatMult                0      0.00%      5.91% # attempts to use FU when none available (Count)
system.cpu.statFuBusy::SimdFloatMultAcc             0      0.00%      5.91% # attempts to use FU when none available (Count)
system.cpu.statFuBusy::SimdFloatMatMultAcc            0      0.00%      5.91% # attempts to use FU when none available (Count)
system.cpu.statFuBusy::SimdFloatSqrt                0      0.00%      5.91% # attempts to use FU when none available (Count)
system.cpu.statFuBusy::SimdReduceAdd                0      0.00%      5.91% # attempts to use FU when none available (Count)
system.cpu.statFuBusy::SimdReduceAlu                0      0.00%      5.91% # attempts to use FU when none available (Count)
system.cpu.statFuBusy::SimdReduceCmp                0      0.00%      5.91% # attempts to use FU when none available (Count)
system.cpu.statFuBusy::SimdFloatReduceAdd            0      0.00%      5.91% # attempts to use FU when none available (Count)
system.cpu.statFuBusy::SimdFloatReduceCmp            0      0.00%      5.91% # attempts to use FU when none available (Count)
system.cpu.statFuBusy::SimdAes                      0      0.00%      5.91% # attempts to use FU when none available (Count)
system.cpu.statFuBusy::SimdAesMix                   0      0.00%      5.91% # attempts to use FU when none available (Count)
system.cpu.statFuBusy::SimdSha1Hash                 0      0.00%      5.91% # attempts to use FU when none available (Count)
system.cpu.statFuBusy::SimdSha1Hash2                0      0.00%      5.91% # attempts to use FU when none available (Count)
system.cpu.statFuBusy::SimdSha256Hash               0      0.00%      5.91% # attempts to use FU when none available (Count)
system.cpu.statFuBusy::SimdSha256Hash2              0      0.00%      5.91% # attempts to use FU when none available (Count)
system.cpu.statFuBusy::SimdShaSigma2                0      0.00%      5.91% # attempts to use FU when none available (Count)
system.cpu.statFuBusy::SimdShaSigma3                0      0.00%      5.91% # attempts to use FU when none available (Count)
system.cpu.statFuBusy::SimdSha3                     0      0.00%      5.91% # attempts to use FU when none available (Count)
system.cpu.statFuBusy::SimdSm4e                     0      0.00%      5.91% # attempts to use FU when none available (Count)
system.cpu.statFuBusy::SimdCrc                      0      0.00%      5.91% # attempts to use FU when none available (Count)
system.cpu.statFuBusy::SimdPredAlu                  0      0.00%      5.91% # attempts to use FU when none available (Count)
system.cpu.statFuBusy::SimdDotProd                  0      0.00%      5.91% # attempts to use FU when none available (Count)
system.cpu.statFuBusy::Matrix                       0      0.00%      5.91% # attempts to use FU when none available (Count)
system.cpu.statFuBusy::MatrixMov                    0      0.00%      5.91% # attempts to use FU when none available (Count)
system.cpu.statFuBusy::MatrixOP                     0      0.00%      5.91% # attempts to use FU when none available (Count)
system.cpu.statFuBusy::MemRead                  78014     84.48%     90.38% # attempts to use FU when none available (Count)
system.cpu.statFuBusy::MemWrite                  8874      9.61%     99.99% # attempts to use FU when none available (Count)
system.cpu.statFuBusy::FloatMemRead                 0      0.00%     99.99% # attempts to use FU when none available (Count)
system.cpu.statFuBusy::FloatMemWrite                7      0.01%    100.00% # attempts to use FU when none available (Count)
system.cpu.statFuBusy::InstPrefetch                 0      0.00%    100.00% # attempts to use FU when none available (Count)
system.cpu.statFuBusy::SimdUnitStrideLoad            0      0.00%    100.00% # attempts to use FU when none available (Count)
system.cpu.statFuBusy::SimdUnitStrideStore            0      0.00%    100.00% # attempts to use FU when none available (Count)
system.cpu.statFuBusy::SimdUnitStrideMaskLoad            0      0.00%    100.00% # attempts to use FU when none available (Count)
system.cpu.statFuBusy::SimdUnitStrideMaskStore            0      0.00%    100.00% # attempts to use FU when none available (Count)
system.cpu.statFuBusy::SimdStridedLoad              0      0.00%    100.00% # attempts to use FU when none available (Count)
system.cpu.statFuBusy::SimdStridedStore             0      0.00%    100.00% # attempts to use FU when none available (Count)
system.cpu.statFuBusy::SimdIndexedLoad              0      0.00%    100.00% # attempts to use FU when none available (Count)
system.cpu.statFuBusy::SimdIndexedStore             0      0.00%    100.00% # attempts to use FU when none available (Count)
system.cpu.statFuBusy::SimdWholeRegisterLoad            0      0.00%    100.00% # attempts to use FU when none available (Count)
system.cpu.statFuBusy::SimdWholeRegisterStore            0      0.00%    100.00% # attempts to use FU when none available (Count)
system.cpu.statFuBusy::SimdUnitStrideFaultOnlyFirstLoad            0      0.00%    100.00% # attempts to use FU when none available (Count)
system.cpu.statFuBusy::SimdUnitStrideSegmentedLoad            0      0.00%    100.00% # attempts to use FU when none available (Count)
system.cpu.statFuBusy::SimdUnitStrideSegmentedStore            0      0.00%    100.00% # attempts to use FU when none available (Count)
system.cpu.statFuBusy::SimdUnitStrideSegmentedFaultOnlyFirstLoad            0      0.00%    100.00% # attempts to use FU when none available (Count)
system.cpu.statFuBusy::SimdStrideSegmentedLoad            0      0.00%    100.00% # attempts to use FU when none available (Count)
system.cpu.statFuBusy::SimdStrideSegmentedStore            0      0.00%    100.00% # attempts to use FU when none available (Count)
system.cpu.statFuBusy::SimdExt                      0      0.00%    100.00% # attempts to use FU when none available (Count)
system.cpu.statFuBusy::SimdFloatExt                 0      0.00%    100.00% # attempts to use FU when none available (Count)
system.cpu.statFuBusy::SimdConfig                   0      0.00%    100.00% # attempts to use FU when none available (Count)
system.cpu.statFuBusy::SimdBf16Add                  0      0.00%    100.00% # attempts to use FU when none available (Count)
system.cpu.statFuBusy::SimdBf16Cmp                  0      0.00%    100.00% # attempts to use FU when none available (Count)
system.cpu.statFuBusy::SimdBf16Cvt                  0      0.00%    100.00% # attempts to use FU when none available (Count)
system.cpu.statFuBusy::SimdBf16DotProd              0      0.00%    100.00% # attempts to use FU when none available (Count)
system.cpu.statFuBusy::SimdBf16MatMultAcc            0      0.00%    100.00% # attempts to use FU when none available (Count)
system.cpu.statFuBusy::SimdBf16Mult                 0      0.00%    100.00% # attempts to use FU when none available (Count)
system.cpu.statFuBusy::SimdBf16MultAcc              0      0.00%    100.00% # attempts to use FU when none available (Count)
system.cpu.statFuBusy::Bf16Cvt                      0      0.00%    100.00% # attempts to use FU when none available (Count)
system.cpu.statFuBusy::System                       0      0.00%    100.00% # attempts to use FU when none available (Count)
system.cpu.issuedInstType_0::No_OpClass        138381      0.14%      0.14% # Number of instructions issued per FU type, per thread (Count)
system.cpu.issuedInstType_0::IntAlu          61021975     62.37%     62.51% # Number of instructions issued per FU type, per thread (Count)
system.cpu.issuedInstType_0::IntMult            77835      0.08%     62.59% # Number of instructions issued per FU type, per thread (Count)
system.cpu.issuedInstType_0::IntDiv               596      0.00%     62.59% # Number of instructions issued per FU type, per thread (Count)
system.cpu.issuedInstType_0::FloatAdd               0      0.00%     62.59% # Number of instructions issued per FU type, per thread (Count)
system.cpu.issuedInstType_0::FloatCmp               0      0.00%     62.59% # Number of instructions issued per FU type, per thread (Count)
system.cpu.issuedInstType_0::FloatCvt               0      0.00%     62.59% # Number of instructions issued per FU type, per thread (Count)
system.cpu.issuedInstType_0::FloatMult              0      0.00%     62.59% # Number of instructions issued per FU type, per thread (Count)
system.cpu.issuedInstType_0::FloatMultAcc            0      0.00%     62.59% # Number of instructions issued per FU type, per thread (Count)
system.cpu.issuedInstType_0::FloatDiv               0      0.00%     62.59% # Number of instructions issued per FU type, per thread (Count)
system.cpu.issuedInstType_0::FloatMisc              0      0.00%     62.59% # Number of instructions issued per FU type, per thread (Count)
system.cpu.issuedInstType_0::FloatSqrt              0      0.00%     62.59% # Number of instructions issued per FU type, per thread (Count)
system.cpu.issuedInstType_0::SimdAdd                0      0.00%     62.59% # Number of instructions issued per FU type, per thread (Count)
system.cpu.issuedInstType_0::SimdAddAcc             0      0.00%     62.59% # Number of instructions issued per FU type, per thread (Count)
system.cpu.issuedInstType_0::SimdAlu                0      0.00%     62.59% # Number of instructions issued per FU type, per thread (Count)
system.cpu.issuedInstType_0::SimdCmp                0      0.00%     62.59% # Number of instructions issued per FU type, per thread (Count)
system.cpu.issuedInstType_0::SimdCvt                0      0.00%     62.59% # Number of instructions issued per FU type, per thread (Count)
system.cpu.issuedInstType_0::SimdMisc               0      0.00%     62.59% # Number of instructions issued per FU type, per thread (Count)
system.cpu.issuedInstType_0::SimdMult               0      0.00%     62.59% # Number of instructions issued per FU type, per thread (Count)
system.cpu.issuedInstType_0::SimdMultAcc            0      0.00%     62.59% # Number of instructions issued per FU type, per thread (Count)
system.cpu.issuedInstType_0::SimdMatMultAcc            0      0.00%     62.59% # Number of instructions issued per FU type, per thread (Count)
system.cpu.issuedInstType_0::SimdShift              0      0.00%     62.59% # Number of instructions issued per FU type, per thread (Count)
system.cpu.issuedInstType_0::SimdShiftAcc            0      0.00%     62.59% # Number of instructions issued per FU type, per thread (Count)
system.cpu.issuedInstType_0::SimdDiv                0      0.00%     62.59% # Number of instructions issued per FU type, per thread (Count)
system.cpu.issuedInstType_0::SimdSqrt               0      0.00%     62.59% # Number of instructions issued per FU type, per thread (Count)
system.cpu.issuedInstType_0::SimdFloatAdd            0      0.00%     62.59% # Number of instructions issued per FU type, per thread (Count)
system.cpu.issuedInstType_0::SimdFloatAlu            0      0.00%     62.59% # Number of instructions issued per FU type, per thread (Count)
system.cpu.issuedInstType_0::SimdFloatCmp            0      0.00%     62.59% # Number of instructions issued per FU type, per thread (Count)
system.cpu.issuedInstType_0::SimdFloatCvt            0      0.00%     62.59% # Number of instructions issued per FU type, per thread (Count)
system.cpu.issuedInstType_0::SimdFloatDiv            0      0.00%     62.59% # Number of instructions issued per FU type, per thread (Count)
system.cpu.issuedInstType_0::SimdFloatMisc            0      0.00%     62.59% # Number of instructions issued per FU type, per thread (Count)
system.cpu.issuedInstType_0::SimdFloatMult            0      0.00%     62.59% # Number of instructions issued per FU type, per thread (Count)
system.cpu.issuedInstType_0::SimdFloatMultAcc            0      0.00%     62.59% # Number of instructions issued per FU type, per thread (Count)
system.cpu.issuedInstType_0::SimdFloatMatMultAcc            0      0.00%     62.59% # Number of instructions issued per FU type, per thread (Count)
system.cpu.issuedInstType_0::SimdFloatSqrt            0      0.00%     62.59% # Number of instructions issued per FU type, per thread (Count)
system.cpu.issuedInstType_0::SimdReduceAdd            0      0.00%     62.59% # Number of instructions issued per FU type, per thread (Count)
system.cpu.issuedInstType_0::SimdReduceAlu            0      0.00%     62.59% # Number of instructions issued per FU type, per thread (Count)
system.cpu.issuedInstType_0::SimdReduceCmp            0      0.00%     62.59% # Number of instructions issued per FU type, per thread (Count)
system.cpu.issuedInstType_0::SimdFloatReduceAdd            0      0.00%     62.59% # Number of instructions issued per FU type, per thread (Count)
system.cpu.issuedInstType_0::SimdFloatReduceCmp            0      0.00%     62.59% # Number of instructions issued per FU type, per thread (Count)
system.cpu.issuedInstType_0::SimdAes                0      0.00%     62.59% # Number of instructions issued per FU type, per thread (Count)
system.cpu.issuedInstType_0::SimdAesMix             0      0.00%     62.59% # Number of instructions issued per FU type, per thread (Count)
system.cpu.issuedInstType_0::SimdSha1Hash            0      0.00%     62.59% # Number of instructions issued per FU type, per thread (Count)
system.cpu.issuedInstType_0::SimdSha1Hash2            0      0.00%     62.59% # Number of instructions issued per FU type, per thread (Count)
system.cpu.issuedInstType_0::SimdSha256Hash            0      0.00%     62.59% # Number of instructions issued per FU type, per thread (Count)
system.cpu.issuedInstType_0::SimdSha256Hash2            0      0.00%     62.59% # Number of instructions issued per FU type, per thread (Count)
system.cpu.issuedInstType_0::SimdShaSigma2            0      0.00%     62.59% # Number of instructions issued per FU type, per thread (Count)
system.cpu.issuedInstType_0::SimdShaSigma3            0      0.00%     62.59% # Number of instructions issued per FU type, per thread (Count)
system.cpu.issuedInstType_0::SimdSha3               0      0.00%     62.59% # Number of instructions issued per FU type, per thread (Count)
system.cpu.issuedInstType_0::SimdSm4e               0      0.00%     62.59% # Number of instructions issued per FU type, per thread (Count)
system.cpu.issuedInstType_0::SimdCrc                0      0.00%     62.59% # Number of instructions issued per FU type, per thread (Count)
system.cpu.issuedInstType_0::SimdPredAlu            0      0.00%     62.59% # Number of instructions issued per FU type, per thread (Count)
system.cpu.issuedInstType_0::SimdDotProd            0      0.00%     62.59% # Number of instructions issued per FU type, per thread (Count)
system.cpu.issuedInstType_0::Matrix                 0      0.00%     62.59% # Number of instructions issued per FU type, per thread (Count)
system.cpu.issuedInstType_0::MatrixMov              0      0.00%     62.59% # Number of instructions issued per FU type, per thread (Count)
system.cpu.issuedInstType_0::MatrixOP               0      0.00%     62.59% # Number of instructions issued per FU type, per thread (Count)
system.cpu.issuedInstType_0::MemRead         24430331     24.97%     87.55% # Number of instructions issued per FU type, per thread (Count)
system.cpu.issuedInstType_0::MemWrite        12176979     12.45%    100.00% # Number of instructions issued per FU type, per thread (Count)
system.cpu.issuedInstType_0::FloatMemRead            4      0.00%    100.00% # Number of instructions issued per FU type, per thread (Count)
system.cpu.issuedInstType_0::FloatMemWrite           14      0.00%    100.00% # Number of instructions issued per FU type, per thread (Count)
system.cpu.issuedInstType_0::InstPrefetch            0      0.00%    100.00% # Number of instructions issued per FU type, per thread (Count)
system.cpu.issuedInstType_0::SimdUnitStrideLoad            0      0.00%    100.00% # Number of instructions issued per FU type, per thread (Count)
system.cpu.issuedInstType_0::SimdUnitStrideStore            0      0.00%    100.00% # Number of instructions issued per FU type, per thread (Count)
system.cpu.issuedInstType_0::SimdUnitStrideMaskLoad            0      0.00%    100.00% # Number of instructions issued per FU type, per thread (Count)
system.cpu.issuedInstType_0::SimdUnitStrideMaskStore            0      0.00%    100.00% # Number of instructions issued per FU type, per thread (Count)
system.cpu.issuedInstType_0::SimdStridedLoad            0      0.00%    100.00% # Number of instructions issued per FU type, per thread (Count)
system.cpu.issuedInstType_0::SimdStridedStore            0      0.00%    100.00% # Number of instructions issued per FU type, per thread (Count)
system.cpu.issuedInstType_0::SimdIndexedLoad            0      0.00%    100.00% # Number of instructions issued per FU type, per thread (Count)
system.cpu.issuedInstType_0::SimdIndexedStore            0      0.00%    100.00% # Number of instructions issued per FU type, per thread (Count)
system.cpu.issuedInstType_0::SimdWholeRegisterLoad            0      0.00%    100.00% # Number of instructions issued per FU type, per thread (Count)
system.cpu.issuedInstType_0::SimdWholeRegisterStore            0      0.00%    100.00% # Number of instructions issued per FU type, per thread (Count)
system.cpu.issuedInstType_0::SimdUnitStrideFaultOnlyFirstLoad            0      0.00%    100.00% # Number of instructions issued per FU type, per thread (Count)
system.cpu.issuedInstType_0::SimdUnitStrideSegmentedLoad            0      0.00%    100.00% # Number of instructions issued per FU type, per thread (Count)
system.cpu.issuedInstType_0::SimdUnitStrideSegmentedStore            0      0.00%    100.00% # Number of instructions issued per FU type, per thread (Count)
system.cpu.issuedInstType_0::SimdUnitStrideSegmentedFaultOnlyFirstLoad            0      0.00%    100.00% # Number of instructions issued per FU type, per thread (Count)
system.cpu.issuedInstType_0::SimdStrideSegmentedLoad            0      0.00%    100.00% # Number of instructions issued per FU type, per thread (Count)
system.cpu.issuedInstType_0::SimdStrideSegmentedStore            0      0.00%    100.00% # Number of instructions issued per FU type, per thread (Count)
system.cpu.issuedInstType_0::SimdExt                0      0.00%    100.00% # Number of instructions issued per FU type, per thread (Count)
system.cpu.issuedInstType_0::SimdFloatExt            0      0.00%    100.00% # Number of instructions issued per FU type, per thread (Count)
system.cpu.issuedInstType_0::SimdConfig             0      0.00%    100.00% # Number of instructions issued per FU type, per thread (Count)
system.cpu.issuedInstType_0::SimdBf16Add            0      0.00%    100.00% # Number of instructions issued per FU type, per thread (Count)
system.cpu.issuedInstType_0::SimdBf16Cmp            0      0.00%    100.00% # Number of instructions issued per FU type, per thread (Count)
system.cpu.issuedInstType_0::SimdBf16Cvt            0      0.00%    100.00% # Number of instructions issued per FU type, per thread (Count)
system.cpu.issuedInstType_0::SimdBf16DotProd            0      0.00%    100.00% # Number of instructions issued per FU type, per thread (Count)
system.cpu.issuedInstType_0::SimdBf16MatMultAcc            0      0.00%    100.00% # Number of instructions issued per FU type, per thread (Count)
system.cpu.issuedInstType_0::SimdBf16Mult            0      0.00%    100.00% # Number of instructions issued per FU type, per thread (Count)
system.cpu.issuedInstType_0::SimdBf16MultAcc            0      0.00%    100.00% # Number of instructions issued per FU type, per thread (Count)
system.cpu.issuedInstType_0::Bf16Cvt                0      0.00%    100.00% # Number of instructions issued per FU type, per thread (Count)
system.cpu.issuedInstType_0::System                 0      0.00%    100.00% # Number of instructions issued per FU type, per thread (Count)
system.cpu.issuedInstType_0::total           97846115                       # Number of instructions issued per FU type, per thread (Count)
system.cpu.issueRate                         0.912423                       # Inst issue rate ((Count/Cycle))
system.cpu.fuBusy                               92350                       # FU busy when requested (Count)
system.cpu.fuBusyRate                        0.000944                       # FU busy rate (busy events/executed inst) ((Count/Count))
system.cpu.intInstQueueReads                302987030                       # Number of integer instruction queue reads (Count)
system.cpu.intInstQueueWrites               101078433                       # Number of integer instruction queue writes (Count)
system.cpu.intInstQueueWakeupAccesses        97791258                       # Number of integer instruction queue wakeup accesses (Count)
system.cpu.fpInstQueueReads                        43                       # Number of floating instruction queue reads (Count)
system.cpu.fpInstQueueWrites                       34                       # Number of floating instruction queue writes (Count)
system.cpu.fpInstQueueWakeupAccesses               17                       # Number of floating instruction queue wakeup accesses (Count)
system.cpu.vecInstQueueReads                        0                       # Number of vector instruction queue reads (Count)
system.cpu.vecInstQueueWrites                       0                       # Number of vector instruction queue writes (Count)
system.cpu.vecInstQueueWakeupAccesses               0                       # Number of vector instruction queue wakeup accesses (Count)
system.cpu.intAluAccesses                    97800059                       # Number of integer alu accesses (Count)
system.cpu.fpAluAccesses                           25                       # Number of floating point alu accesses (Count)
system.cpu.vecAluAccesses                           0                       # Number of vector alu accesses (Count)
system.cpu.numRecvResp                       15305400                       # Number of received responses (Count)
system.cpu.numRecvRespBytes                  74249669                       # Number of received response bytes (Byte)
system.cpu.recvRespAvgBW                         0.69                       # Average bandwidth of received responses ((Byte/Cycle))
system.cpu.recvRespAvgSize                       4.85                       # Average packet size per received response ((Byte/Count))
system.cpu.recvRespAvgRate                       0.14                       # Average rate of received responses per cycle ((Count/Cycle))
system.cpu.recvRespAvgRetryRate                  0.00                       # Average retry rate per received response ((Count/Count))
system.cpu.numSendRetryResp                         0                       # Number of retry responses sent (Count)
system.cpu.numSquashedInsts                     50771                       # Number of squashed instructions skipped in execute (Count)
system.cpu.numSwp                                   0                       # Number of swp insts executed (Count)
system.cpu.timesIdled                             813                       # Number of times that the entire CPU went into an idle state and unscheduled itself (Count)
system.cpu.idleCycles                           35372                       # Total number of cycles that the CPU has spent unscheduled due to idling (Cycle)
system.cpu.MemDepUnit__0.insertedLoads       24892224                       # Number of loads inserted to the mem dependence unit. (Count)
system.cpu.MemDepUnit__0.insertedStores      12429995                       # Number of stores inserted to the mem dependence unit. (Count)
system.cpu.MemDepUnit__0.conflictingLoads     20791493                       # Number of conflicting loads. (Count)
system.cpu.MemDepUnit__0.conflictingStores     10566897                       # Number of conflicting stores. (Count)
system.cpu.MemDepUnit__1.insertedLoads              0                       # Number of loads inserted to the mem dependence unit. (Count)
system.cpu.MemDepUnit__1.insertedStores             0                       # Number of stores inserted to the mem dependence unit. (Count)
system.cpu.MemDepUnit__1.conflictingLoads            0                       # Number of conflicting loads. (Count)
system.cpu.MemDepUnit__1.conflictingStores            0                       # Number of conflicting stores. (Count)
system.cpu.MemDepUnit__2.insertedLoads              0                       # Number of loads inserted to the mem dependence unit. (Count)
system.cpu.MemDepUnit__2.insertedStores             0                       # Number of stores inserted to the mem dependence unit. (Count)
system.cpu.MemDepUnit__2.conflictingLoads            0                       # Number of conflicting loads. (Count)
system.cpu.MemDepUnit__2.conflictingStores            0                       # Number of conflicting stores. (Count)
system.cpu.MemDepUnit__3.insertedLoads              0                       # Number of loads inserted to the mem dependence unit. (Count)
system.cpu.MemDepUnit__3.insertedStores             0                       # Number of stores inserted to the mem dependence unit. (Count)
system.cpu.MemDepUnit__3.conflictingLoads            0                       # Number of conflicting loads. (Count)
system.cpu.MemDepUnit__3.conflictingStores            0                       # Number of conflicting stores. (Count)
system.cpu.bac.fetchTargets                         0                       # Number of fetch targets created  (Count)
system.cpu.bac.branches                      10799129                       # Number of branches that BAC encountered (Count)
system.cpu.bac.predTakenBranches             10345842                       # Number of branches that BAC predicted taken. (Count)
system.cpu.bac.branchesNotLastuOp                   0                       # Number of branches that fetch encountered which are not the last uOp within a macrooperation. Jump to itself. (Count)
system.cpu.bac.branchMisspredict                29208                       # Number of mispredicted branches (Count)
system.cpu.bac.noBranchMisspredict                144                       # Number of non-branch instructions mispredicted (Count)
system.cpu.bac.squashBranchDecode                 505                       # Number of branches squashed from decode (Count)
system.cpu.bac.squashBranchCommit               28703                       # Number of branches squashed from commit (Count)
system.cpu.bac.preDecUpdate::NoBranch               0                       # Number of branches extracted from the predecoder (Count)
system.cpu.bac.preDecUpdate::Return                 0                       # Number of branches extracted from the predecoder (Count)
system.cpu.bac.preDecUpdate::CallDirect             0                       # Number of branches extracted from the predecoder (Count)
system.cpu.bac.preDecUpdate::CallIndirect            0                       # Number of branches extracted from the predecoder (Count)
system.cpu.bac.preDecUpdate::DirectCond             0                       # Number of branches extracted from the predecoder (Count)
system.cpu.bac.preDecUpdate::DirectUncond            0                       # Number of branches extracted from the predecoder (Count)
system.cpu.bac.preDecUpdate::IndirectCond            0                       # Number of branches extracted from the predecoder (Count)
system.cpu.bac.preDecUpdate::IndirectUncond            0                       # Number of branches extracted from the predecoder (Count)
system.cpu.bac.preDecUpdate::total                  0                       # Number of branches extracted from the predecoder (Count)
system.cpu.bac.noHistByType::NoBranch               0                       # Number and type of branches that were undetected by the BPU. (Count)
system.cpu.bac.noHistByType::Return                 0                       # Number and type of branches that were undetected by the BPU. (Count)
system.cpu.bac.noHistByType::CallDirect             0                       # Number and type of branches that were undetected by the BPU. (Count)
system.cpu.bac.noHistByType::CallIndirect            0                       # Number and type of branches that were undetected by the BPU. (Count)
system.cpu.bac.noHistByType::DirectCond             0                       # Number and type of branches that were undetected by the BPU. (Count)
system.cpu.bac.noHistByType::DirectUncond            0                       # Number and type of branches that were undetected by the BPU. (Count)
system.cpu.bac.noHistByType::IndirectCond            0                       # Number and type of branches that were undetected by the BPU. (Count)
system.cpu.bac.noHistByType::IndirectUncond            0                       # Number and type of branches that were undetected by the BPU. (Count)
system.cpu.bac.noHistByType::total                  0                       # Number and type of branches that were undetected by the BPU. (Count)
system.cpu.bac.typeMissmatch                        0                       # Number branches where the branch type miss match (Count)
system.cpu.bac.multiBranchInst                      0                       # Number branches because its not the last branch. (Count)
system.cpu.bac.ftSizeDist::samples                  0                       # Number of bytes per fetch target (Count)
system.cpu.bac.ftSizeDist::mean                   nan                       # Number of bytes per fetch target (Count)
system.cpu.bac.ftSizeDist::stdev                  nan                       # Number of bytes per fetch target (Count)
system.cpu.bac.ftSizeDist::underflows               0                       # Number of bytes per fetch target (Count)
system.cpu.bac.ftSizeDist::0-3                      0                       # Number of bytes per fetch target (Count)
system.cpu.bac.ftSizeDist::4-7                      0                       # Number of bytes per fetch target (Count)
system.cpu.bac.ftSizeDist::8-11                     0                       # Number of bytes per fetch target (Count)
system.cpu.bac.ftSizeDist::12-15                    0                       # Number of bytes per fetch target (Count)
system.cpu.bac.ftSizeDist::16-19                    0                       # Number of bytes per fetch target (Count)
system.cpu.bac.ftSizeDist::20-23                    0                       # Number of bytes per fetch target (Count)
system.cpu.bac.ftSizeDist::24-27                    0                       # Number of bytes per fetch target (Count)
system.cpu.bac.ftSizeDist::28-31                    0                       # Number of bytes per fetch target (Count)
system.cpu.bac.ftSizeDist::32                       0                       # Number of bytes per fetch target (Count)
system.cpu.bac.ftSizeDist::overflows                0                       # Number of bytes per fetch target (Count)
system.cpu.bac.ftSizeDist::min_value                0                       # Number of bytes per fetch target (Count)
system.cpu.bac.ftSizeDist::max_value                0                       # Number of bytes per fetch target (Count)
system.cpu.bac.ftSizeDist::total                    0                       # Number of bytes per fetch target (Count)
system.cpu.bac.ftNumber::samples                    0                       # Number of fetch target inserted to the FTQ per cycle (Count)
system.cpu.bac.ftNumber::mean                     nan                       # Number of fetch target inserted to the FTQ per cycle (Count)
system.cpu.bac.ftNumber::stdev                    nan                       # Number of fetch target inserted to the FTQ per cycle (Count)
system.cpu.bac.ftNumber::underflows                 0                       # Number of fetch target inserted to the FTQ per cycle (Count)
system.cpu.bac.ftNumber::0                          0                       # Number of fetch target inserted to the FTQ per cycle (Count)
system.cpu.bac.ftNumber::1                          0                       # Number of fetch target inserted to the FTQ per cycle (Count)
system.cpu.bac.ftNumber::2                          0                       # Number of fetch target inserted to the FTQ per cycle (Count)
system.cpu.bac.ftNumber::3                          0                       # Number of fetch target inserted to the FTQ per cycle (Count)
system.cpu.bac.ftNumber::4                          0                       # Number of fetch target inserted to the FTQ per cycle (Count)
system.cpu.bac.ftNumber::overflows                  0                       # Number of fetch target inserted to the FTQ per cycle (Count)
system.cpu.bac.ftNumber::min_value                  0                       # Number of fetch target inserted to the FTQ per cycle (Count)
system.cpu.bac.ftNumber::max_value                  0                       # Number of fetch target inserted to the FTQ per cycle (Count)
system.cpu.bac.ftNumber::total                      0                       # Number of fetch target inserted to the FTQ per cycle (Count)
system.cpu.branchPred.lookups_0::NoBranch            0      0.00%      0.00% # Number of BP lookups (Count)
system.cpu.branchPred.lookups_0::Return         90920      0.84%      0.84% # Number of BP lookups (Count)
system.cpu.branchPred.lookups_0::CallDirect        90481      0.84%      1.68% # Number of BP lookups (Count)
system.cpu.branchPred.lookups_0::CallIndirect          916      0.01%      1.69% # Number of BP lookups (Count)
system.cpu.branchPred.lookups_0::DirectCond     10411668     96.41%     98.10% # Number of BP lookups (Count)
system.cpu.branchPred.lookups_0::DirectUncond       202279      1.87%     99.97% # Number of BP lookups (Count)
system.cpu.branchPred.lookups_0::IndirectCond            0      0.00%     99.97% # Number of BP lookups (Count)
system.cpu.branchPred.lookups_0::IndirectUncond         2865      0.03%    100.00% # Number of BP lookups (Count)
system.cpu.branchPred.lookups_0::total       10799129                       # Number of BP lookups (Count)
system.cpu.branchPred.squashes_0::NoBranch            0      0.00%      0.00% # Number of branches that got squashed (completely removed) as an earlier branch was mispredicted. (Count)
system.cpu.branchPred.squashes_0::Return         1324      0.38%      0.38% # Number of branches that got squashed (completely removed) as an earlier branch was mispredicted. (Count)
system.cpu.branchPred.squashes_0::CallDirect         1468      0.42%      0.80% # Number of branches that got squashed (completely removed) as an earlier branch was mispredicted. (Count)
system.cpu.branchPred.squashes_0::CallIndirect          327      0.09%      0.89% # Number of branches that got squashed (completely removed) as an earlier branch was mispredicted. (Count)
system.cpu.branchPred.squashes_0::DirectCond       343257     98.05%     98.94% # Number of branches that got squashed (completely removed) as an earlier branch was mispredicted. (Count)
system.cpu.branchPred.squashes_0::DirectUncond         3499      1.00%     99.94% # Number of branches that got squashed (completely removed) as an earlier branch was mispredicted. (Count)
system.cpu.branchPred.squashes_0::IndirectCond            0      0.00%     99.94% # Number of branches that got squashed (completely removed) as an earlier branch was mispredicted. (Count)
system.cpu.branchPred.squashes_0::IndirectUncond          200      0.06%    100.00% # Number of branches that got squashed (completely removed) as an earlier branch was mispredicted. (Count)
system.cpu.branchPred.squashes_0::total        350075                       # Number of branches that got squashed (completely removed) as an earlier branch was mispredicted. (Count)
system.cpu.branchPred.corrected_0::NoBranch            0      0.00%      0.00% # Number of branches that got corrected but not yet commited. Branches get corrected by decode or after execute. Also a branch misprediction can be detected out-of-order. Therefore, a corrected branch might not end up beeing committed in case an even earlier branch was mispredicted (Count)
system.cpu.branchPred.corrected_0::Return            5      0.02%      0.02% # Number of branches that got corrected but not yet commited. Branches get corrected by decode or after execute. Also a branch misprediction can be detected out-of-order. Therefore, a corrected branch might not end up beeing committed in case an even earlier branch was mispredicted (Count)
system.cpu.branchPred.corrected_0::CallDirect          260      0.89%      0.91% # Number of branches that got corrected but not yet commited. Branches get corrected by decode or after execute. Also a branch misprediction can be detected out-of-order. Therefore, a corrected branch might not end up beeing committed in case an even earlier branch was mispredicted (Count)
system.cpu.branchPred.corrected_0::CallIndirect           45      0.15%      1.06% # Number of branches that got corrected but not yet commited. Branches get corrected by decode or after execute. Also a branch misprediction can be detected out-of-order. Therefore, a corrected branch might not end up beeing committed in case an even earlier branch was mispredicted (Count)
system.cpu.branchPred.corrected_0::DirectCond        28543     97.72%     98.78% # Number of branches that got corrected but not yet commited. Branches get corrected by decode or after execute. Also a branch misprediction can be detected out-of-order. Therefore, a corrected branch might not end up beeing committed in case an even earlier branch was mispredicted (Count)
system.cpu.branchPred.corrected_0::DirectUncond          245      0.84%     99.62% # Number of branches that got corrected but not yet commited. Branches get corrected by decode or after execute. Also a branch misprediction can be detected out-of-order. Therefore, a corrected branch might not end up beeing committed in case an even earlier branch was mispredicted (Count)
system.cpu.branchPred.corrected_0::IndirectCond            0      0.00%     99.62% # Number of branches that got corrected but not yet commited. Branches get corrected by decode or after execute. Also a branch misprediction can be detected out-of-order. Therefore, a corrected branch might not end up beeing committed in case an even earlier branch was mispredicted (Count)
system.cpu.branchPred.corrected_0::IndirectUncond          110      0.38%    100.00% # Number of branches that got corrected but not yet commited. Branches get corrected by decode or after execute. Also a branch misprediction can be detected out-of-order. Therefore, a corrected branch might not end up beeing committed in case an even earlier branch was mispredicted (Count)
system.cpu.branchPred.corrected_0::total        29208                       # Number of branches that got corrected but not yet commited. Branches get corrected by decode or after execute. Also a branch misprediction can be detected out-of-order. Therefore, a corrected branch might not end up beeing committed in case an even earlier branch was mispredicted (Count)
system.cpu.branchPred.earlyResteers_0::NoBranch            0      0.00%      0.00% # Number of branches that got redirected after decode. (Count)
system.cpu.branchPred.earlyResteers_0::Return            0      0.00%      0.00% # Number of branches that got redirected after decode. (Count)
system.cpu.branchPred.earlyResteers_0::CallDirect          260     51.49%     51.49% # Number of branches that got redirected after decode. (Count)
system.cpu.branchPred.earlyResteers_0::CallIndirect            0      0.00%     51.49% # Number of branches that got redirected after decode. (Count)
system.cpu.branchPred.earlyResteers_0::DirectCond            0      0.00%     51.49% # Number of branches that got redirected after decode. (Count)
system.cpu.branchPred.earlyResteers_0::DirectUncond          245     48.51%    100.00% # Number of branches that got redirected after decode. (Count)
system.cpu.branchPred.earlyResteers_0::IndirectCond            0      0.00%    100.00% # Number of branches that got redirected after decode. (Count)
system.cpu.branchPred.earlyResteers_0::IndirectUncond            0      0.00%    100.00% # Number of branches that got redirected after decode. (Count)
system.cpu.branchPred.earlyResteers_0::total          505                       # Number of branches that got redirected after decode. (Count)
system.cpu.branchPred.committed_0::NoBranch            0      0.00%      0.00% # Number of branches finally committed  (Count)
system.cpu.branchPred.committed_0::Return        89595      0.86%      0.86% # Number of branches finally committed  (Count)
system.cpu.branchPred.committed_0::CallDirect        89012      0.85%      1.71% # Number of branches finally committed  (Count)
system.cpu.branchPred.committed_0::CallIndirect          588      0.01%      1.71% # Number of branches finally committed  (Count)
system.cpu.branchPred.committed_0::DirectCond     10068402     96.36%     98.07% # Number of branches finally committed  (Count)
system.cpu.branchPred.committed_0::DirectUncond       198780      1.90%     99.97% # Number of branches finally committed  (Count)
system.cpu.branchPred.committed_0::IndirectCond            0      0.00%     99.97% # Number of branches finally committed  (Count)
system.cpu.branchPred.committed_0::IndirectUncond         2665      0.03%    100.00% # Number of branches finally committed  (Count)
system.cpu.branchPred.committed_0::total     10449042                       # Number of branches finally committed  (Count)
system.cpu.branchPred.mispredicted_0::NoBranch            0      0.00%      0.00% # Number of committed branches that were mispredicted. (Count)
system.cpu.branchPred.mispredicted_0::Return            0      0.00%      0.00% # Number of committed branches that were mispredicted. (Count)
system.cpu.branchPred.mispredicted_0::CallDirect          173      0.61%      0.61% # Number of committed branches that were mispredicted. (Count)
system.cpu.branchPred.mispredicted_0::CallIndirect           42      0.15%      0.75% # Number of committed branches that were mispredicted. (Count)
system.cpu.branchPred.mispredicted_0::DirectCond        28093     98.30%     99.05% # Number of committed branches that were mispredicted. (Count)
system.cpu.branchPred.mispredicted_0::DirectUncond          172      0.60%     99.65% # Number of committed branches that were mispredicted. (Count)
system.cpu.branchPred.mispredicted_0::IndirectCond            0      0.00%     99.65% # Number of committed branches that were mispredicted. (Count)
system.cpu.branchPred.mispredicted_0::IndirectUncond           99      0.35%    100.00% # Number of committed branches that were mispredicted. (Count)
system.cpu.branchPred.mispredicted_0::total        28579                       # Number of committed branches that were mispredicted. (Count)
system.cpu.branchPred.mispredictDueToPredictor_0::NoBranch            0      0.00%      0.00% # Number of committed branches that were mispredicted by the predictor. (Count)
system.cpu.branchPred.mispredictDueToPredictor_0::Return            0      0.00%      0.00% # Number of committed branches that were mispredicted by the predictor. (Count)
system.cpu.branchPred.mispredictDueToPredictor_0::CallDirect            0      0.00%      0.00% # Number of committed branches that were mispredicted by the predictor. (Count)
system.cpu.branchPred.mispredictDueToPredictor_0::CallIndirect            0      0.00%      0.00% # Number of committed branches that were mispredicted by the predictor. (Count)
system.cpu.branchPred.mispredictDueToPredictor_0::DirectCond        27726    100.00%    100.00% # Number of committed branches that were mispredicted by the predictor. (Count)
system.cpu.branchPred.mispredictDueToPredictor_0::DirectUncond            0      0.00%    100.00% # Number of committed branches that were mispredicted by the predictor. (Count)
system.cpu.branchPred.mispredictDueToPredictor_0::IndirectCond            0      0.00%    100.00% # Number of committed branches that were mispredicted by the predictor. (Count)
system.cpu.branchPred.mispredictDueToPredictor_0::IndirectUncond            0      0.00%    100.00% # Number of committed branches that were mispredicted by the predictor. (Count)
system.cpu.branchPred.mispredictDueToPredictor_0::total        27726                       # Number of committed branches that were mispredicted by the predictor. (Count)
system.cpu.branchPred.mispredictDueToBTBMiss_0::NoBranch            0      0.00%      0.00% # Number of committed branches that were mispredicted because of a BTB miss. (Count)
system.cpu.branchPred.mispredictDueToBTBMiss_0::Return            0      0.00%      0.00% # Number of committed branches that were mispredicted because of a BTB miss. (Count)
system.cpu.branchPred.mispredictDueToBTBMiss_0::CallDirect          173     20.28%     20.28% # Number of committed branches that were mispredicted because of a BTB miss. (Count)
system.cpu.branchPred.mispredictDueToBTBMiss_0::CallIndirect           42      4.92%     25.21% # Number of committed branches that were mispredicted because of a BTB miss. (Count)
system.cpu.branchPred.mispredictDueToBTBMiss_0::DirectCond          367     43.02%     68.23% # Number of committed branches that were mispredicted because of a BTB miss. (Count)
system.cpu.branchPred.mispredictDueToBTBMiss_0::DirectUncond          172     20.16%     88.39% # Number of committed branches that were mispredicted because of a BTB miss. (Count)
system.cpu.branchPred.mispredictDueToBTBMiss_0::IndirectCond            0      0.00%     88.39% # Number of committed branches that were mispredicted because of a BTB miss. (Count)
system.cpu.branchPred.mispredictDueToBTBMiss_0::IndirectUncond           99     11.61%    100.00% # Number of committed branches that were mispredicted because of a BTB miss. (Count)
system.cpu.branchPred.mispredictDueToBTBMiss_0::total          853                       # Number of committed branches that were mispredicted because of a BTB miss. (Count)
system.cpu.branchPred.targetProvider_0::NoTarget       453287      4.20%      4.20% # The component providing the target for taken branches (Count)
system.cpu.branchPred.targetProvider_0::BTB     10251592     94.93%     99.13% # The component providing the target for taken branches (Count)
system.cpu.branchPred.targetProvider_0::RAS        90920      0.84%     99.97% # The component providing the target for taken branches (Count)
system.cpu.branchPred.targetProvider_0::Indirect         3330      0.03%    100.00% # The component providing the target for taken branches (Count)
system.cpu.branchPred.targetProvider_0::total     10799129                       # The component providing the target for taken branches (Count)
system.cpu.branchPred.targetWrong_0::NoBranch         2343      8.02%      8.02% # Number of branches where the target was incorrect or not available at prediction time. (Count)
system.cpu.branchPred.targetWrong_0::Return        26798     91.75%     99.77% # Number of branches where the target was incorrect or not available at prediction time. (Count)
system.cpu.branchPred.targetWrong_0::CallDirect            5      0.02%     99.79% # Number of branches where the target was incorrect or not available at prediction time. (Count)
system.cpu.branchPred.targetWrong_0::CallIndirect           62      0.21%    100.00% # Number of branches where the target was incorrect or not available at prediction time. (Count)
system.cpu.branchPred.targetWrong_0::DirectCond            0      0.00%    100.00% # Number of branches where the target was incorrect or not available at prediction time. (Count)
system.cpu.branchPred.targetWrong_0::DirectUncond            0      0.00%    100.00% # Number of branches where the target was incorrect or not available at prediction time. (Count)
system.cpu.branchPred.targetWrong_0::IndirectCond            0      0.00%    100.00% # Number of branches where the target was incorrect or not available at prediction time. (Count)
system.cpu.branchPred.targetWrong_0::IndirectUncond            0      0.00%    100.00% # Number of branches where the target was incorrect or not available at prediction time. (Count)
system.cpu.branchPred.targetWrong_0::total        29208                       # Number of branches where the target was incorrect or not available at prediction time. (Count)
system.cpu.branchPred.condPredicted          10411668                       # Number of conditional branches predicted (Count)
system.cpu.branchPred.condPredictedTaken      9960901                       # Number of conditional branches predicted as taken (Count)
system.cpu.branchPred.condIncorrect             28579                       # Number of conditional branches incorrect (Count)
system.cpu.branchPred.predTakenBTBMiss            703                       # Number of branches predicted taken but missed in BTB (Count)
system.cpu.branchPred.BTBLookups             10799129                       # Number of BTB lookups (Count)
system.cpu.branchPred.BTBUpdates                 2250                       # Number of BTB updates (Count)
system.cpu.branchPred.BTBHits                10603674                       # Number of BTB hits (Count)
system.cpu.branchPred.BTBHitRatio            0.981901                       # BTB Hit Ratio (Ratio)
system.cpu.branchPred.BTBMispredicted             921                       # Number BTB mispredictions. No target found or target wrong (Count)
system.cpu.branchPred.indirectLookups            3781                       # Number of indirect predictor lookups. (Count)
system.cpu.branchPred.indirectHits               3330                       # Number of indirect target hits. (Count)
system.cpu.branchPred.indirectMisses              451                       # Number of indirect misses. (Count)
system.cpu.branchPred.indirectMispredicted            0                       # Number of mispredicted indirect branches. (Count)
system.cpu.branchPred.btb.lookups::NoBranch            0      0.00%      0.00% # Number of BTB lookups (Count)
system.cpu.branchPred.btb.lookups::Return        90920      0.84%      0.84% # Number of BTB lookups (Count)
system.cpu.branchPred.btb.lookups::CallDirect        90481      0.84%      1.68% # Number of BTB lookups (Count)
system.cpu.branchPred.btb.lookups::CallIndirect          916      0.01%      1.69% # Number of BTB lookups (Count)
system.cpu.branchPred.btb.lookups::DirectCond     10411668     96.41%     98.10% # Number of BTB lookups (Count)
system.cpu.branchPred.btb.lookups::DirectUncond       202279      1.87%     99.97% # Number of BTB lookups (Count)
system.cpu.branchPred.btb.lookups::IndirectCond            0      0.00%     99.97% # Number of BTB lookups (Count)
system.cpu.branchPred.btb.lookups::IndirectUncond         2865      0.03%    100.00% # Number of BTB lookups (Count)
system.cpu.branchPred.btb.lookups::total     10799129                       # Number of BTB lookups (Count)
system.cpu.branchPred.btb.misses::NoBranch            0      0.00%      0.00% # Number of BTB misses (Count)
system.cpu.branchPred.btb.misses::Return        90920     46.52%     46.52% # Number of BTB misses (Count)
system.cpu.branchPred.btb.misses::CallDirect          508      0.26%     46.78% # Number of BTB misses (Count)
system.cpu.branchPred.btb.misses::CallIndirect          916      0.47%     47.25% # Number of BTB misses (Count)
system.cpu.branchPred.btb.misses::DirectCond        99787     51.05%     98.30% # Number of BTB misses (Count)
system.cpu.branchPred.btb.misses::DirectUncond          459      0.23%     98.53% # Number of BTB misses (Count)
system.cpu.branchPred.btb.misses::IndirectCond            0      0.00%     98.53% # Number of BTB misses (Count)
system.cpu.branchPred.btb.misses::IndirectUncond         2865      1.47%    100.00% # Number of BTB misses (Count)
system.cpu.branchPred.btb.misses::total        195455                       # Number of BTB misses (Count)
system.cpu.branchPred.btb.updates::NoBranch            0      0.00%      0.00% # Number of BTB updates (Count)
system.cpu.branchPred.btb.updates::Return            0      0.00%      0.00% # Number of BTB updates (Count)
system.cpu.branchPred.btb.updates::CallDirect          260     11.56%     11.56% # Number of BTB updates (Count)
system.cpu.branchPred.btb.updates::CallIndirect            0      0.00%     11.56% # Number of BTB updates (Count)
system.cpu.branchPred.btb.updates::DirectCond         1745     77.56%     89.11% # Number of BTB updates (Count)
system.cpu.branchPred.btb.updates::DirectUncond          245     10.89%    100.00% # Number of BTB updates (Count)
system.cpu.branchPred.btb.updates::IndirectCond            0      0.00%    100.00% # Number of BTB updates (Count)
system.cpu.branchPred.btb.updates::IndirectUncond            0      0.00%    100.00% # Number of BTB updates (Count)
system.cpu.branchPred.btb.updates::total         2250                       # Number of BTB updates (Count)
system.cpu.branchPred.btb.mispredict::NoBranch            0      0.00%      0.00% # Number of BTB mispredictions. No target found or target wrong. (Count)
system.cpu.branchPred.btb.mispredict::Return            0      0.00%      0.00% # Number of BTB mispredictions. No target found or target wrong. (Count)
system.cpu.branchPred.btb.mispredict::CallDirect          260     11.56%     11.56% # Number of BTB mispredictions. No target found or target wrong. (Count)
system.cpu.branchPred.btb.mispredict::CallIndirect            0      0.00%     11.56% # Number of BTB mispredictions. No target found or target wrong. (Count)
system.cpu.branchPred.btb.mispredict::DirectCond         1745     77.56%     89.11% # Number of BTB mispredictions. No target found or target wrong. (Count)
system.cpu.branchPred.btb.mispredict::DirectUncond          245     10.89%    100.00% # Number of BTB mispredictions. No target found or target wrong. (Count)
system.cpu.branchPred.btb.mispredict::IndirectCond            0      0.00%    100.00% # Number of BTB mispredictions. No target found or target wrong. (Count)
system.cpu.branchPred.btb.mispredict::IndirectUncond            0      0.00%    100.00% # Number of BTB mispredictions. No target found or target wrong. (Count)
system.cpu.branchPred.btb.mispredict::total         2250                       # Number of BTB mispredictions. No target found or target wrong. (Count)
system.cpu.branchPred.btb.power_state.pwrStateResidencyTicks::UNDEFINED 107237725000                       # Cumulative time (in ticks) in various power states (Tick)
system.cpu.branchPred.indirectBranchPred.lookups         3781                       # Number of lookups (Count)
system.cpu.branchPred.indirectBranchPred.hits         3330                       # Number of hits of a tag (Count)
system.cpu.branchPred.indirectBranchPred.misses          451                       # Number of misses (Count)
system.cpu.branchPred.indirectBranchPred.targetRecords          155                       # Number of targets that where recorded/installed in the cache (Count)
system.cpu.branchPred.indirectBranchPred.indirectRecords         3936                       # Number of indirect branches/calls recorded in the indirect hist (Count)
system.cpu.branchPred.indirectBranchPred.speculativeOverflows            4                       # Number of times more than the allowed capacity for speculative branches/calls where in flight and destroy the path history (Count)
system.cpu.branchPred.ras.pushes                92721                       # Number of times a PC was pushed onto the RAS (Count)
system.cpu.branchPred.ras.pops                  92715                       # Number of times a PC was poped from the RAS (Count)
system.cpu.branchPred.ras.squashes               3119                       # Number of times the stack operation was squashed due to wrong speculation. (Count)
system.cpu.branchPred.ras.used                  89595                       # Number of times the RAS is the provider (Count)
system.cpu.branchPred.ras.correct               89595                       # Number of times the RAS is the provider and the prediction is correct (Count)
system.cpu.branchPred.ras.incorrect                 0                       # Number of times the RAS is the provider and the prediction is wrong (Count)
system.cpu.commit.status::running           107201682    100.00%    100.00% # Number of cycles commit is running (Cycle)
system.cpu.commit.status::idle                      1      0.00%    100.00% # Number of cycles commit is idle (Cycle)
system.cpu.commit.status::trapPending             672      0.00%    100.00% # Number of cycles commit is processing a trap (Cycle)
system.cpu.commit.commitSquashedInsts         1870431                       # The number of squashed insts skipped by commit (Count)
system.cpu.commit.commitNonSpecStalls          138404                       # The number of times commit has been forced to stall to communicate backwards (Count)
system.cpu.commit.branchMispredicts             28703                       # The number of times a branch was mispredicted (Count)
system.cpu.commit.numCommittedDist::samples    107173508                       # Number of insts commited each cycle (Count)
system.cpu.commit.numCommittedDist::mean     0.908224                       # Number of insts commited each cycle (Count)
system.cpu.commit.numCommittedDist::stdev     1.374966                       # Number of insts commited each cycle (Count)
system.cpu.commit.numCommittedDist::underflows            0      0.00%      0.00% # Number of insts commited each cycle (Count)
system.cpu.commit.numCommittedDist::0        56028108     52.28%     52.28% # Number of insts commited each cycle (Count)
system.cpu.commit.numCommittedDist::1        30600577     28.55%     80.83% # Number of insts commited each cycle (Count)
system.cpu.commit.numCommittedDist::2         9435731      8.80%     89.63% # Number of insts commited each cycle (Count)
system.cpu.commit.numCommittedDist::3          916653      0.86%     90.49% # Number of insts commited each cycle (Count)
system.cpu.commit.numCommittedDist::4         8998848      8.40%     98.89% # Number of insts commited each cycle (Count)
system.cpu.commit.numCommittedDist::5           19274      0.02%     98.90% # Number of insts commited each cycle (Count)
system.cpu.commit.numCommittedDist::6          183407      0.17%     99.08% # Number of insts commited each cycle (Count)
system.cpu.commit.numCommittedDist::7            3903      0.00%     99.08% # Number of insts commited each cycle (Count)
system.cpu.commit.numCommittedDist::8          987007      0.92%    100.00% # Number of insts commited each cycle (Count)
system.cpu.commit.numCommittedDist::overflows            0      0.00%    100.00% # Number of insts commited each cycle (Count)
system.cpu.commit.numCommittedDist::min_value            0                       # Number of insts commited each cycle (Count)
system.cpu.commit.numCommittedDist::max_value            8                       # Number of insts commited each cycle (Count)
system.cpu.commit.numCommittedDist::total    107173508                       # Number of insts commited each cycle (Count)
system.cpu.commit.amos                              0                       # Number of atomic instructions committed (Count)
system.cpu.commit.membars                          95                       # Number of memory barriers committed (Count)
system.cpu.commit.committedInstType_0::No_OpClass       138335      0.14%      0.14% # Class of committed instruction (Count)
system.cpu.commit.committedInstType_0::IntAlu     60702629     62.36%     62.51% # Class of committed instruction (Count)
system.cpu.commit.committedInstType_0::IntMult        77505      0.08%     62.58% # Class of committed instruction (Count)
system.cpu.commit.committedInstType_0::IntDiv          577      0.00%     62.59% # Class of committed instruction (Count)
system.cpu.commit.committedInstType_0::FloatAdd            0      0.00%     62.59% # Class of committed instruction (Count)
system.cpu.commit.committedInstType_0::FloatCmp            0      0.00%     62.59% # Class of committed instruction (Count)
system.cpu.commit.committedInstType_0::FloatCvt            0      0.00%     62.59% # Class of committed instruction (Count)
system.cpu.commit.committedInstType_0::FloatMult            0      0.00%     62.59% # Class of committed instruction (Count)
system.cpu.commit.committedInstType_0::FloatMultAcc            0      0.00%     62.59% # Class of committed instruction (Count)
system.cpu.commit.committedInstType_0::FloatDiv            0      0.00%     62.59% # Class of committed instruction (Count)
system.cpu.commit.committedInstType_0::FloatMisc            0      0.00%     62.59% # Class of committed instruction (Count)
system.cpu.commit.committedInstType_0::FloatSqrt            0      0.00%     62.59% # Class of committed instruction (Count)
system.cpu.commit.committedInstType_0::SimdAdd            0      0.00%     62.59% # Class of committed instruction (Count)
system.cpu.commit.committedInstType_0::SimdAddAcc            0      0.00%     62.59% # Class of committed instruction (Count)
system.cpu.commit.committedInstType_0::SimdAlu            0      0.00%     62.59% # Class of committed instruction (Count)
system.cpu.commit.committedInstType_0::SimdCmp            0      0.00%     62.59% # Class of committed instruction (Count)
system.cpu.commit.committedInstType_0::SimdCvt            0      0.00%     62.59% # Class of committed instruction (Count)
system.cpu.commit.committedInstType_0::SimdMisc            0      0.00%     62.59% # Class of committed instruction (Count)
system.cpu.commit.committedInstType_0::SimdMult            0      0.00%     62.59% # Class of committed instruction (Count)
system.cpu.commit.committedInstType_0::SimdMultAcc            0      0.00%     62.59% # Class of committed instruction (Count)
system.cpu.commit.committedInstType_0::SimdMatMultAcc            0      0.00%     62.59% # Class of committed instruction (Count)
system.cpu.commit.committedInstType_0::SimdShift            0      0.00%     62.59% # Class of committed instruction (Count)
system.cpu.commit.committedInstType_0::SimdShiftAcc            0      0.00%     62.59% # Class of committed instruction (Count)
system.cpu.commit.committedInstType_0::SimdDiv            0      0.00%     62.59% # Class of committed instruction (Count)
system.cpu.commit.committedInstType_0::SimdSqrt            0      0.00%     62.59% # Class of committed instruction (Count)
system.cpu.commit.committedInstType_0::SimdFloatAdd            0      0.00%     62.59% # Class of committed instruction (Count)
system.cpu.commit.committedInstType_0::SimdFloatAlu            0      0.00%     62.59% # Class of committed instruction (Count)
system.cpu.commit.committedInstType_0::SimdFloatCmp            0      0.00%     62.59% # Class of committed instruction (Count)
system.cpu.commit.committedInstType_0::SimdFloatCvt            0      0.00%     62.59% # Class of committed instruction (Count)
system.cpu.commit.committedInstType_0::SimdFloatDiv            0      0.00%     62.59% # Class of committed instruction (Count)
system.cpu.commit.committedInstType_0::SimdFloatMisc            0      0.00%     62.59% # Class of committed instruction (Count)
system.cpu.commit.committedInstType_0::SimdFloatMult            0      0.00%     62.59% # Class of committed instruction (Count)
system.cpu.commit.committedInstType_0::SimdFloatMultAcc            0      0.00%     62.59% # Class of committed instruction (Count)
system.cpu.commit.committedInstType_0::SimdFloatMatMultAcc            0      0.00%     62.59% # Class of committed instruction (Count)
system.cpu.commit.committedInstType_0::SimdFloatSqrt            0      0.00%     62.59% # Class of committed instruction (Count)
system.cpu.commit.committedInstType_0::SimdReduceAdd            0      0.00%     62.59% # Class of committed instruction (Count)
system.cpu.commit.committedInstType_0::SimdReduceAlu            0      0.00%     62.59% # Class of committed instruction (Count)
system.cpu.commit.committedInstType_0::SimdReduceCmp            0      0.00%     62.59% # Class of committed instruction (Count)
system.cpu.commit.committedInstType_0::SimdFloatReduceAdd            0      0.00%     62.59% # Class of committed instruction (Count)
system.cpu.commit.committedInstType_0::SimdFloatReduceCmp            0      0.00%     62.59% # Class of committed instruction (Count)
system.cpu.commit.committedInstType_0::SimdAes            0      0.00%     62.59% # Class of committed instruction (Count)
system.cpu.commit.committedInstType_0::SimdAesMix            0      0.00%     62.59% # Class of committed instruction (Count)
system.cpu.commit.committedInstType_0::SimdSha1Hash            0      0.00%     62.59% # Class of committed instruction (Count)
system.cpu.commit.committedInstType_0::SimdSha1Hash2            0      0.00%     62.59% # Class of committed instruction (Count)
system.cpu.commit.committedInstType_0::SimdSha256Hash            0      0.00%     62.59% # Class of committed instruction (Count)
system.cpu.commit.committedInstType_0::SimdSha256Hash2            0      0.00%     62.59% # Class of committed instruction (Count)
system.cpu.commit.committedInstType_0::SimdShaSigma2            0      0.00%     62.59% # Class of committed instruction (Count)
system.cpu.commit.committedInstType_0::SimdShaSigma3            0      0.00%     62.59% # Class of committed instruction (Count)
system.cpu.commit.committedInstType_0::SimdSha3            0      0.00%     62.59% # Class of committed instruction (Count)
system.cpu.commit.committedInstType_0::SimdSm4e            0      0.00%     62.59% # Class of committed instruction (Count)
system.cpu.commit.committedInstType_0::SimdCrc            0      0.00%     62.59% # Class of committed instruction (Count)
system.cpu.commit.committedInstType_0::SimdPredAlu            0      0.00%     62.59% # Class of committed instruction (Count)
system.cpu.commit.committedInstType_0::SimdDotProd            0      0.00%     62.59% # Class of committed instruction (Count)
system.cpu.commit.committedInstType_0::Matrix            0      0.00%     62.59% # Class of committed instruction (Count)
system.cpu.commit.committedInstType_0::MatrixMov            0      0.00%     62.59% # Class of committed instruction (Count)
system.cpu.commit.committedInstType_0::MatrixOP            0      0.00%     62.59% # Class of committed instruction (Count)
system.cpu.commit.committedInstType_0::MemRead     24274520     24.94%     87.52% # Class of committed instruction (Count)
system.cpu.commit.committedInstType_0::MemWrite     12144001     12.48%    100.00% # Class of committed instruction (Count)
system.cpu.commit.committedInstType_0::FloatMemRead            0      0.00%    100.00% # Class of committed instruction (Count)
system.cpu.commit.committedInstType_0::FloatMemWrite           12      0.00%    100.00% # Class of committed instruction (Count)
system.cpu.commit.committedInstType_0::InstPrefetch            0      0.00%    100.00% # Class of committed instruction (Count)
system.cpu.commit.committedInstType_0::SimdUnitStrideLoad            0      0.00%    100.00% # Class of committed instruction (Count)
system.cpu.commit.committedInstType_0::SimdUnitStrideStore            0      0.00%    100.00% # Class of committed instruction (Count)
system.cpu.commit.committedInstType_0::SimdUnitStrideMaskLoad            0      0.00%    100.00% # Class of committed instruction (Count)
system.cpu.commit.committedInstType_0::SimdUnitStrideMaskStore            0      0.00%    100.00% # Class of committed instruction (Count)
system.cpu.commit.committedInstType_0::SimdStridedLoad            0      0.00%    100.00% # Class of committed instruction (Count)
system.cpu.commit.committedInstType_0::SimdStridedStore            0      0.00%    100.00% # Class of committed instruction (Count)
system.cpu.commit.committedInstType_0::SimdIndexedLoad            0      0.00%    100.00% # Class of committed instruction (Count)
system.cpu.commit.committedInstType_0::SimdIndexedStore            0      0.00%    100.00% # Class of committed instruction (Count)
system.cpu.commit.committedInstType_0::SimdWholeRegisterLoad            0      0.00%    100.00% # Class of committed instruction (Count)
system.cpu.commit.committedInstType_0::SimdWholeRegisterStore            0      0.00%    100.00% # Class of committed instruction (Count)
system.cpu.commit.committedInstType_0::SimdUnitStrideFaultOnlyFirstLoad            0      0.00%    100.00% # Class of committed instruction (Count)
system.cpu.commit.committedInstType_0::SimdUnitStrideSegmentedLoad            0      0.00%    100.00% # Class of committed instruction (Count)
system.cpu.commit.committedInstType_0::SimdUnitStrideSegmentedStore            0      0.00%    100.00% # Class of committed instruction (Count)
system.cpu.commit.committedInstType_0::SimdUnitStrideSegmentedFaultOnlyFirstLoad            0      0.00%    100.00% # Class of committed instruction (Count)
system.cpu.commit.committedInstType_0::SimdStrideSegmentedLoad            0      0.00%    100.00% # Class of committed instruction (Count)
system.cpu.commit.committedInstType_0::SimdStrideSegmentedStore            0      0.00%    100.00% # Class of committed instruction (Count)
system.cpu.commit.committedInstType_0::SimdExt            0      0.00%    100.00% # Class of committed instruction (Count)
system.cpu.commit.committedInstType_0::SimdFloatExt            0      0.00%    100.00% # Class of committed instruction (Count)
system.cpu.commit.committedInstType_0::SimdConfig            0      0.00%    100.00% # Class of committed instruction (Count)
system.cpu.commit.committedInstType_0::SimdBf16Add            0      0.00%    100.00% # Class of committed instruction (Count)
system.cpu.commit.committedInstType_0::SimdBf16Cmp            0      0.00%    100.00% # Class of committed instruction (Count)
system.cpu.commit.committedInstType_0::SimdBf16Cvt            0      0.00%    100.00% # Class of committed instruction (Count)
system.cpu.commit.committedInstType_0::SimdBf16DotProd            0      0.00%    100.00% # Class of committed instruction (Count)
[...]
system.mem_ctrl.dram.bytesInstRead::total        42688                       # Number of instructions bytes read from this memory (Byte)
system.mem_ctrl.dram.bytesWritten::writebacks       287872                       # Number of bytes written to this memory (Byte)
system.mem_ctrl.dram.bytesWritten::total       287872                       # Number of bytes written to this memory (Byte)
system.mem_ctrl.dram.numReads::cpu.inst           667                       # Number of read requests responded to by this memory (Count)
system.mem_ctrl.dram.numReads::cpu.data        276120                       # Number of read requests responded to by this memory (Count)
system.mem_ctrl.dram.numReads::total           276787                       # Number of read requests responded to by this memory (Count)
system.mem_ctrl.dram.numWrites::writebacks         4498                       # Number of write requests responded to by this memory (Count)
system.mem_ctrl.dram.numWrites::total            4498                       # Number of write requests responded to by this memory (Count)
system.mem_ctrl.dram.bwRead::cpu.inst          398069                       # Total read bandwidth from this memory ((Byte/Second))
system.mem_ctrl.dram.bwRead::cpu.data       164789770                       # Total read bandwidth from this memory ((Byte/Second))
system.mem_ctrl.dram.bwRead::total          165187839                       # Total read bandwidth from this memory ((Byte/Second))
system.mem_ctrl.dram.bwInstRead::cpu.inst       398069                       # Instruction read bandwidth from this memory ((Byte/Second))
system.mem_ctrl.dram.bwInstRead::total         398069                       # Instruction read bandwidth from this memory ((Byte/Second))
system.mem_ctrl.dram.bwWrite::writebacks      2684428                       # Write bandwidth from this memory ((Byte/Second))
system.mem_ctrl.dram.bwWrite::total           2684428                       # Write bandwidth from this memory ((Byte/Second))
system.mem_ctrl.dram.bwTotal::writebacks      2684428                       # Total bandwidth to/from this memory ((Byte/Second))
system.mem_ctrl.dram.bwTotal::cpu.inst         398069                       # Total bandwidth to/from this memory ((Byte/Second))
system.mem_ctrl.dram.bwTotal::cpu.data      164789770                       # Total bandwidth to/from this memory ((Byte/Second))
system.mem_ctrl.dram.bwTotal::total         167872267                       # Total bandwidth to/from this memory ((Byte/Second))
system.mem_ctrl.dram.readBursts                269993                       # Number of DRAM read bursts (Count)
system.mem_ctrl.dram.writeBursts                  272                       # Number of DRAM write bursts (Count)
system.mem_ctrl.dram.perBankRdBursts::0         13208                       # Per bank write bursts (Count)
system.mem_ctrl.dram.perBankRdBursts::1         13155                       # Per bank write bursts (Count)
system.mem_ctrl.dram.perBankRdBursts::2         28517                       # Per bank write bursts (Count)
system.mem_ctrl.dram.perBankRdBursts::3         13088                       # Per bank write bursts (Count)
system.mem_ctrl.dram.perBankRdBursts::4         13088                       # Per bank write bursts (Count)
system.mem_ctrl.dram.perBankRdBursts::5         13295                       # Per bank write bursts (Count)
system.mem_ctrl.dram.perBankRdBursts::6         24637                       # Per bank write bursts (Count)
system.mem_ctrl.dram.perBankRdBursts::7         13220                       # Per bank write bursts (Count)
system.mem_ctrl.dram.perBankRdBursts::8         13261                       # Per bank write bursts (Count)
system.mem_ctrl.dram.perBankRdBursts::9         13244                       # Per bank write bursts (Count)
system.mem_ctrl.dram.perBankRdBursts::10        29533                       # Per bank write bursts (Count)
system.mem_ctrl.dram.perBankRdBursts::11        13253                       # Per bank write bursts (Count)
system.mem_ctrl.dram.perBankRdBursts::12        13143                       # Per bank write bursts (Count)
system.mem_ctrl.dram.perBankRdBursts::13        13166                       # Per bank write bursts (Count)
system.mem_ctrl.dram.perBankRdBursts::14        29091                       # Per bank write bursts (Count)
system.mem_ctrl.dram.perBankRdBursts::15        13094                       # Per bank write bursts (Count)
system.mem_ctrl.dram.perBankWrBursts::0            16                       # Per bank write bursts (Count)
system.mem_ctrl.dram.perBankWrBursts::1            16                       # Per bank write bursts (Count)
system.mem_ctrl.dram.perBankWrBursts::2            13                       # Per bank write bursts (Count)
system.mem_ctrl.dram.perBankWrBursts::3            16                       # Per bank write bursts (Count)
system.mem_ctrl.dram.perBankWrBursts::4            16                       # Per bank write bursts (Count)
system.mem_ctrl.dram.perBankWrBursts::5            16                       # Per bank write bursts (Count)
system.mem_ctrl.dram.perBankWrBursts::6            16                       # Per bank write bursts (Count)
system.mem_ctrl.dram.perBankWrBursts::7            17                       # Per bank write bursts (Count)
system.mem_ctrl.dram.perBankWrBursts::8            16                       # Per bank write bursts (Count)
system.mem_ctrl.dram.perBankWrBursts::9            19                       # Per bank write bursts (Count)
system.mem_ctrl.dram.perBankWrBursts::10           20                       # Per bank write bursts (Count)
system.mem_ctrl.dram.perBankWrBursts::11           18                       # Per bank write bursts (Count)
system.mem_ctrl.dram.perBankWrBursts::12           16                       # Per bank write bursts (Count)
system.mem_ctrl.dram.perBankWrBursts::13           16                       # Per bank write bursts (Count)
system.mem_ctrl.dram.perBankWrBursts::14           25                       # Per bank write bursts (Count)
system.mem_ctrl.dram.perBankWrBursts::15           16                       # Per bank write bursts (Count)
system.mem_ctrl.dram.totQLat               6314154250                       # Total ticks spent queuing (Tick)
system.mem_ctrl.dram.totBusLat             1349965000                       # Total ticks spent in databus transfers (Tick)
system.mem_ctrl.dram.totMemAccLat         11376523000                       # Total ticks spent from burst creation until serviced by the DRAM (Tick)
system.mem_ctrl.dram.avgQLat                 23386.36                       # Average queueing delay per DRAM burst ((Tick/Count))
system.mem_ctrl.dram.avgBusLat                5000.00                       # Average bus latency per DRAM burst ((Tick/Count))
system.mem_ctrl.dram.avgMemAccLat            42136.36                       # Average memory access latency per DRAM burst ((Tick/Count))
system.mem_ctrl.dram.readRowHits                44222                       # Number of row buffer hits during reads (Count)
system.mem_ctrl.dram.writeRowHits                 223                       # Number of row buffer hits during writes (Count)
system.mem_ctrl.dram.readRowHitRate             16.38                       # Row buffer hit rate for reads (Ratio)
system.mem_ctrl.dram.writeRowHitRate            81.99                       # Row buffer hit rate for writes (Ratio)
system.mem_ctrl.dram.bytesPerActivate::samples       225813                       # Bytes accessed per row activation (Byte)
system.mem_ctrl.dram.bytesPerActivate::mean    76.587265                       # Bytes accessed per row activation (Byte)
system.mem_ctrl.dram.bytesPerActivate::gmean    70.731623                       # Bytes accessed per row activation (Byte)
system.mem_ctrl.dram.bytesPerActivate::stdev    48.459958                       # Bytes accessed per row activation (Byte)
system.mem_ctrl.dram.bytesPerActivate::0-127       204028     90.35%     90.35% # Bytes accessed per row activation (Byte)
system.mem_ctrl.dram.bytesPerActivate::128-255        14336      6.35%     96.70% # Bytes accessed per row activation (Byte)
system.mem_ctrl.dram.bytesPerActivate::256-383         7166      3.17%     99.87% # Bytes accessed per row activation (Byte)
system.mem_ctrl.dram.bytesPerActivate::384-511           98      0.04%     99.92% # Bytes accessed per row activation (Byte)
system.mem_ctrl.dram.bytesPerActivate::512-639           21      0.01%     99.93% # Bytes accessed per row activation (Byte)
system.mem_ctrl.dram.bytesPerActivate::640-767           15      0.01%     99.93% # Bytes accessed per row activation (Byte)
system.mem_ctrl.dram.bytesPerActivate::768-895            7      0.00%     99.94% # Bytes accessed per row activation (Byte)
system.mem_ctrl.dram.bytesPerActivate::896-1023            7      0.00%     99.94% # Bytes accessed per row activation (Byte)
system.mem_ctrl.dram.bytesPerActivate::1024-1151          135      0.06%    100.00% # Bytes accessed per row activation (Byte)
system.mem_ctrl.dram.bytesPerActivate::total       225813                       # Bytes accessed per row activation (Byte)
system.mem_ctrl.dram.dramBytesRead           17279552                       # Total bytes read (Byte)
system.mem_ctrl.dram.dramBytesWritten           17408                       # Total bytes written (Byte)
system.mem_ctrl.dram.avgRdBW               161.133146                       # Average DRAM read bandwidth in MiBytes/s ((Byte/Second))
system.mem_ctrl.dram.avgWrBW                 0.162331                       # Average DRAM write bandwidth in MiBytes/s ((Byte/Second))
system.mem_ctrl.dram.peakBW                  12800.00                       # Theoretical peak bandwidth in MiByte/s ((Byte/Second))
system.mem_ctrl.dram.busUtil                     1.26                       # Data bus utilization in percentage (Ratio)
system.mem_ctrl.dram.busUtilRead                 1.26                       # Data bus utilization in percentage for reads (Ratio)
system.mem_ctrl.dram.busUtilWrite                0.00                       # Data bus utilization in percentage for writes (Ratio)
system.mem_ctrl.dram.pageHitRate                16.44                       # Row buffer hit rate, read and write combined (Ratio)
system.mem_ctrl.dram.power_state.pwrStateResidencyTicks::UNDEFINED 107237725000                       # Cumulative time (in ticks) in various power states (Tick)
system.mem_ctrl.dram.rank0.actEnergy        795088980                       # Energy for activate commands per rank (pJ) (Joule)
system.mem_ctrl.dram.rank0.preEnergy        422584635                       # Energy for precharge commands per rank (pJ) (Joule)
system.mem_ctrl.dram.rank0.readEnergy       943965120                       # Energy for read commands per rank (pJ) (Joule)
system.mem_ctrl.dram.rank0.writeEnergy         657720                       # Energy for write commands per rank (pJ) (Joule)
system.mem_ctrl.dram.rank0.refreshEnergy 8464822080.000001                       # Energy for refresh commands per rank (pJ) (Joule)
system.mem_ctrl.dram.rank0.actBackEnergy  32389180680                       # Energy for active background per rank (pJ) (Joule)
system.mem_ctrl.dram.rank0.preBackEnergy  13904186880                       # Energy for precharge background per rank (pJ) (Joule)
system.mem_ctrl.dram.rank0.actPowerDownEnergy            0                       # Energy for active power-down per rank (pJ) (Joule)
system.mem_ctrl.dram.rank0.prePowerDownEnergy            0                       # Energy for precharge power-down per rank (pJ) (Joule)
system.mem_ctrl.dram.rank0.selfRefreshEnergy            0                       # Energy for self refresh per rank (pJ) (Joule)
system.mem_ctrl.dram.rank0.totalEnergy    56920486095                       # Total energy per rank (pJ) (Joule)
system.mem_ctrl.dram.rank0.averagePower    530.787893                       # Core power per rank (mW) (Watt)
system.mem_ctrl.dram.rank0.totalIdleTime            0                       # Total Idle time Per DRAM Rank (Tick)
system.mem_ctrl.dram.rank0.pwrStateTime::IDLE  35847221750                       # Time in different power states (Tick)
system.mem_ctrl.dram.rank0.pwrStateTime::REF   3580720000                       # Time in different power states (Tick)
system.mem_ctrl.dram.rank0.pwrStateTime::SREF            0                       # Time in different power states (Tick)
system.mem_ctrl.dram.rank0.pwrStateTime::PRE_PDN            0                       # Time in different power states (Tick)
system.mem_ctrl.dram.rank0.pwrStateTime::ACT  67809783250                       # Time in different power states (Tick)
system.mem_ctrl.dram.rank0.pwrStateTime::ACT_PDN            0                       # Time in different power states (Tick)
system.mem_ctrl.dram.rank1.actEnergy        817265820                       # Energy for activate commands per rank (pJ) (Joule)
system.mem_ctrl.dram.rank1.preEnergy        434375700                       # Energy for precharge commands per rank (pJ) (Joule)
system.mem_ctrl.dram.rank1.readEnergy       983784900                       # Energy for read commands per rank (pJ) (Joule)
system.mem_ctrl.dram.rank1.writeEnergy         762120                       # Energy for write commands per rank (pJ) (Joule)
system.mem_ctrl.dram.rank1.refreshEnergy 8464822080.000001                       # Energy for refresh commands per rank (pJ) (Joule)
system.mem_ctrl.dram.rank1.actBackEnergy  32286718620                       # Energy for active background per rank (pJ) (Joule)
system.mem_ctrl.dram.rank1.preBackEnergy  13990470720                       # Energy for precharge background per rank (pJ) (Joule)
system.mem_ctrl.dram.rank1.actPowerDownEnergy            0                       # Energy for active power-down per rank (pJ) (Joule)
system.mem_ctrl.dram.rank1.prePowerDownEnergy            0                       # Energy for precharge power-down per rank (pJ) (Joule)
system.mem_ctrl.dram.rank1.selfRefreshEnergy            0                       # Energy for self refresh per rank (pJ) (Joule)
system.mem_ctrl.dram.rank1.totalEnergy    56978199960                       # Total energy per rank (pJ) (Joule)
system.mem_ctrl.dram.rank1.averagePower    531.326079                       # Core power per rank (mW) (Watt)
system.mem_ctrl.dram.rank1.totalIdleTime            0                       # Total Idle time Per DRAM Rank (Tick)
system.mem_ctrl.dram.rank1.pwrStateTime::IDLE  36076334250                       # Time in different power states (Tick)
system.mem_ctrl.dram.rank1.pwrStateTime::REF   3580720000                       # Time in different power states (Tick)
system.mem_ctrl.dram.rank1.pwrStateTime::SREF            0                       # Time in different power states (Tick)
system.mem_ctrl.dram.rank1.pwrStateTime::PRE_PDN            0                       # Time in different power states (Tick)
system.mem_ctrl.dram.rank1.pwrStateTime::ACT  67580670750                       # Time in different power states (Tick)
system.mem_ctrl.dram.rank1.pwrStateTime::ACT_PDN            0                       # Time in different power states (Tick)
system.mem_ctrl.power_state.pwrStateResidencyTicks::UNDEFINED 107237725000                       # Cumulative time (in ticks) in various power states (Tick)
system.membus.transDist::ReadResp              274504                       # Transaction distribution (Count)
system.membus.transDist::WritebackDirty          4498                       # Transaction distribution (Count)
system.membus.transDist::CleanEvict            268748                       # Transaction distribution (Count)
system.membus.transDist::ReadExReq               2283                       # Transaction distribution (Count)
system.membus.transDist::ReadExResp              2283                       # Transaction distribution (Count)
system.membus.transDist::ReadSharedReq         274504                       # Transaction distribution (Count)
system.membus.pktCount_system.l2cache.mem_side_port::system.mem_ctrl.port       826820                       # Packet count per connected requestor and responder (Count)
system.membus.pktCount::total                  826820                       # Packet count per connected requestor and responder (Count)
system.membus.pktSize_system.l2cache.mem_side_port::system.mem_ctrl.port     18002240                       # Cumulative packet size per connected requestor and responder (Byte)
system.membus.pktSize::total                 18002240                       # Cumulative packet size per connected requestor and responder (Byte)
system.membus.snoops                                0                       # Total snoops (Count)
system.membus.snoopTraffic                          0                       # Total snoop traffic (Byte)
system.membus.snoopFanout::samples             276787                       # Request fanout histogram (Count)
system.membus.snoopFanout::mean                     0                       # Request fanout histogram (Count)
system.membus.snoopFanout::stdev                    0                       # Request fanout histogram (Count)
system.membus.snoopFanout::underflows               0      0.00%      0.00% # Request fanout histogram (Count)
system.membus.snoopFanout::0                   276787    100.00%    100.00% # Request fanout histogram (Count)
system.membus.snoopFanout::1                        0      0.00%    100.00% # Request fanout histogram (Count)
system.membus.snoopFanout::overflows                0      0.00%    100.00% # Request fanout histogram (Count)
system.membus.snoopFanout::min_value                0                       # Request fanout histogram (Count)
system.membus.snoopFanout::max_value                0                       # Request fanout histogram (Count)
system.membus.snoopFanout::total               276787                       # Request fanout histogram (Count)
system.membus.power_state.pwrStateResidencyTicks::UNDEFINED 107237725000                       # Cumulative time (in ticks) in various power states (Tick)
system.membus.reqLayer0.occupancy           568025000                       # Layer occupancy (ticks) (Tick)
system.membus.reqLayer0.utilization               0.0                       # Layer utilization (Ratio)
system.membus.respLayer0.occupancy         1545825250                       # Layer occupancy (ticks) (Tick)
system.membus.respLayer0.utilization              0.0                       # Layer utilization (Ratio)
system.membus.snoop_filter.totRequests         550033                       # Total number of requests made to the snoop filter. (Count)
system.membus.snoop_filter.hitSingleRequests       273246                       # Number of requests hitting in the snoop filter with a single holder of the requested data. (Count)
system.membus.snoop_filter.hitMultiRequests            0                       # Number of requests hitting in the snoop filter with multiple (>1) holders of the requested data. (Count)
system.membus.snoop_filter.totSnoops                0                       # Total number of snoops made to the snoop filter. (Count)
system.membus.snoop_filter.hitSingleSnoops            0                       # Number of snoops hitting in the snoop filter with a single holder of the requested data. (Count)
system.membus.snoop_filter.hitMultiSnoops            0                       # Number of snoops hitting in the snoop filter with multiple (>1) holders of the requested data. (Count)
system.workload.inst.arm                            0                       # number of arm instructions executed (Count)
system.workload.inst.quiesce                        0                       # number of quiesce instructions executed (Count)

---------- End Simulation Statistics   ----------
